VERSION 17
*******************************************************************************
*** TRNSYS input file (deck) generated by TrnsysStudio
*** on Tuesday, March 15, 2016 at 13:45
*** from TrnsysStudio project: D:\Development\trnsys-fmu\test\plant_room_model.tpf
*** 
*** If you edit this file, use the File/Import TRNSYS Input File function in 
*** TrnsysStudio to update the project. 
*** 
*** If you have problems, questions or suggestions please contact your local 
*** TRNSYS distributor or mailto:software@cstb.fr 
*** 
*******************************************************************************


*******************************************************************************
*** Units 
*******************************************************************************

*******************************************************************************
*** Control cards
*******************************************************************************
* START, STOP and STEP
CONSTANTS 3
START=0
STOP=12
STEP=0.249999993
SIMULATION 	 START	 STOP	 STEP	! Start time	End time	Time step
TOLERANCES 0.001 0.001			! Integration	 Convergence
LIMITS 30 500 50				! Max iterations	Max warnings	Trace limit
DFQ 1					! TRNSYS numerical integration solver method
WIDTH 80				! TRNSYS output file width, number of characters
LIST 					! NOLIST statement
					! MAP statement
SOLVER 0 1 1				! Solver statement	Minimum relaxation factor	Maximum relaxation factor
NAN_CHECK 0				! Nan DEBUG statement
OVERWRITE_CHECK 0			! Overwrite DEBUG statement
TIME_REPORT 0			! disable time report
EQSOLVER 0				! EQUATION SOLVER statement
* User defined CONSTANTS 


* EQUATIONS "Input"
* 
EQUATIONS 6
HeatLoss = 1 ! W
HeatPower = 1.7320508075688772935274463415059 ! W
Gain = 0.0002 ! (Ws)/K
TimeStep = 15*60 !  s
Output = ( ( HeatPower * [7,1] ) - HeatLoss ) * Gain * TimeStep
Tmean = 21
*$UNIT_NAME Input
*$LAYER Main
*$POSITION 175 151

*------------------------------------------------------------------------------


* EQUATIONS "Output"
* 
EQUATIONS 2
Troom = [12,1] + 20.3
Troom_mean = [12,3] + 20.3
*$UNIT_NAME Output
*$LAYER Main
*$POSITION 409 151

*------------------------------------------------------------------------------


* Model "Integrator" (Type 55)
* 

UNIT 12 TYPE 55	 Integrator
*$UNIT_NAME Integrator
*$MODEL .\Utility\Integrators\Periodic Integrator\Type55.tmf
*$POSITION 290 151
*$LAYER Main # 
PARAMETERS 7
-1		! 1 Integrate or sum input
0		! 2 Relative starting hour for input
-1		! 3 Duration for input
-1		! 4 Cycle repeat time for input
-1		! 5 Reset time for input
0		! 6 Absolute starting hour for input
168		! 7 Absolute stopping hour for input 
INPUTS 1
Output		! Input:Output ->Input
*** INITIAL INPUT VALUES
0. 
*------------------------------------------------------------------------------

* Model "Plotter" (Type 65)
* 

UNIT 13 TYPE 65	 Plotter
*$UNIT_NAME Plotter
*$MODEL .\Output\Online Plotter\Online Plotter With File\No Units\Type65c.tmf
*$POSITION 294 55
*$LAYER Main # 
PARAMETERS 12
2		! 1 Nb. of left-axis variables
1		! 2 Nb. of right-axis variables
19.8		! 3 Left axis minimum
21.8		! 4 Left axis maximum
0		! 5 Right axis minimum
5		! 6 Right axis maximum
1		! 7 Number of plots per simulation
12		! 8 X-axis gridpoints
0		! 9 Shut off Online w/o removing
31		! 10 Logical Unit for output file
0		! 11 Output file units
0		! 12 Output file delimiter
INPUTS 3
Tmean		! Input:Tmean ->Left axis variable-1
Troom		! Output:Troom ->Left axis variable-2
0,0		! [unconnected] Right axis variable
*** INITIAL INPUT VALUES
Tmean Troom Ctrl 
LABELS  3
"Temperatures"
"ControlSignal"
"Graph 1"
*** External files
ASSIGN "***.plt" 31
*|? What file should the online print to? |1000
*------------------------------------------------------------------------------

* Model "Type6139b" (Type 6139)
* 

UNIT 8 TYPE 6139	 Type6139b
*$UNIT_NAME Type6139b
*$MODEL .\FMI\Type6139b.tmf
*$POSITION 525 148
*$LAYER Main # 
PARAMETERS 1
2		! 1 number of FMI outputs
INPUTS 2
Troom		! Output:Troom ->room_temperature_output
Troom_mean		! Output:Troom_mean ->mean_temperature_output
*** INITIAL INPUT VALUES
0 0 
LABELS 2
"FMI output interface"
"room_temperature, mean_temperature"
*------------------------------------------------------------------------------

* Model "Type6139a" (Type 6139)
* 

UNIT 7 TYPE 6139	 Type6139a
*$UNIT_NAME Type6139a
*$MODEL .\FMI\Type6139a.tmf
*$POSITION 65 148
*$LAYER Main # 
PARAMETERS 1
1		! 1 number of FMI inputs
LABELS 2
"FMI input interface"
"control_signal"
*------------------------------------------------------------------------------

END
